@<TRIPOS>MOLECULE
CBr3
 5 4 0 0 0
SMALL
GASTEIGER

@<TRIPOS>ATOM
      1 H           0.0000    0.0000    0.0000 H       1  UNL11       0.0000
      2 C           1.0928    0.0000    0.0000 C       1  UNL11       0.0000
      3 Br          1.6494    1.2544    1.3771 Br      1  UNL11       0.0000
      4 Br          1.6494   -1.8198    0.3977 Br      1  UNL11       0.0000
      5 Br          1.6494    0.5654   -1.7749 Br      1  UNL11       0.0000
@<TRIPOS>BOND
     1     1     2    1
     2     2     3    1
     3     2     4    1
     4     2     5    1
