@<TRIPOS>MOLECULE
CH2F
 5 4 0 0 0
SMALL
GASTEIGER

@<TRIPOS>ATOM
      1 H           0.0000    0.0000    0.0000 H       1  UNL11       0.0000
      2 C           1.0919   -0.0000    0.0000 C       1  UNL11       0.0000
      3 F           1.5279   -1.2704    0.1907 F       1  UNL11       0.0000
      4 H           1.4686    0.6258    0.8116 H       1  UNL11       0.0000
      5 H           1.4686    0.3601   -0.9594 H       1  UNL11       0.0000
@<TRIPOS>BOND
     1     1     2    1
     2     2     3    1
     3     2     4    1
     4     2     5    1
