@<TRIPOS>MOLECULE
CHF2
 5 4 0 0 0
SMALL
GASTEIGER

@<TRIPOS>ATOM
      1 H           0.0000    0.0000    0.0000 H       1  UNL11       0.0000
      2 C           1.0919   -0.0000   -0.0000 C       1  UNL11       0.0000
      3 F           1.5449   -1.2531    0.2408 F       1  UNL11       0.0000
      4 F           1.5448    0.3581   -1.2249 F       1  UNL11       0.0000
      5 H           1.4918    0.6837    0.7515 H       1  UNL11       0.0000
@<TRIPOS>BOND
     1     1     2    1
     2     2     3    1
     3     2     4    1
     4     2     5    1
