@<TRIPOS>MOLECULE
CN
 3 2 0 0 0
SMALL
GASTEIGER

@<TRIPOS>ATOM
      1 H           0.0000    0.0000    0.0000 H       1  UNL11       0.0000
      2 C           1.0652    0.0000    0.0000 C       1  UNL11       0.0000
      3 N           2.2251    0.0000    0.0000 N.2     1  UNL11       0.0000
@<TRIPOS>BOND
     1     1     2    1
     2     2     3    3
