@<TRIPOS>MOLECULE
*****
 7 6 0 0 0
SMALL
GASTEIGER

@<TRIPOS>ATOM
      1 H           1.0741   -0.0766   -0.0714 H       1  UNL1        0.1023
      2 C           2.1755   -0.0202   -0.0650 C.2     1  UNL1        0.1172
      3 O           2.7518    1.0560    0.0567 O.2     1  UNL1       -0.3013
      4 C           2.8983   -1.3231   -0.2123 C.3     1  UNL1       -0.0091
      5 H           2.1674   -2.1307   -0.3037 H       1  UNL1        0.0303
      6 H           3.5149   -1.5005    0.6717 H       1  UNL1        0.0303
      7 H           3.5149   -1.2986   -1.1136 H       1  UNL1        0.0303
@<TRIPOS>BOND
     1     1     2    1
     2     2     3    2
     3     2     4    1
     4     4     5    1
     5     4     6    1
     6     4     7    1
