@<TRIPOS>MOLECULE
*****
 4 3 0 0 0
SMALL
GASTEIGER

@<TRIPOS>ATOM
      1 H           0.9697    0.0522   -0.0864 H       1  UNL1        0.0988
      2 C           2.0706    0.0278   -0.0518 C.2     1  UNL1        0.1071
      3 O           2.6836   -0.5837    0.8143 O.2     1  UNL1       -0.3047
      4 H           2.5835    0.5901   -0.8483 H       1  UNL1        0.0988
@<TRIPOS>BOND
     1     1     2    1
     2     2     3    2
     3     2     4    1
