@<TRIPOS>MOLECULE
*****
 7 6 0 0 0
SMALL
GASTEIGER

@<TRIPOS>ATOM
      1 H           1.0350    0.0580    0.0109 H       1  UNL1        0.1023
      2 C           2.1364    0.1047   -0.0215 C.2     1  UNL1        0.1172
      3 O           2.7127    0.9949   -0.6382 O.2     1  UNL1       -0.3013
      4 C           2.8592   -0.9732    0.7252 C.3     1  UNL1       -0.0091
      5 H           2.1283   -1.6413    1.1880 H       1  UNL1        0.0303
      6 H           3.4758   -0.5249    1.5075 H       1  UNL1        0.0303
      7 H           3.4758   -1.5480    0.0306 H       1  UNL1        0.0303
@<TRIPOS>BOND
     1     1     2    1
     2     2     3    2
     3     2     4    1
     4     4     5    1
     5     4     6    1
     6     4     7    1
