@<TRIPOS>MOLECULE
COOMe
 8 7 0 0 0
SMALL
GASTEIGER

@<TRIPOS>ATOM
      1 H           0.0000    0.0000    0.0000 H       1  UNL11       0.0000
      2 C           1.1013    0.0000    0.0000 C.2     1  UNL11       0.0000
      3 O           1.7900   -0.9694   -0.2725 O.2     1  UNL11       0.0000
      4 O           1.5408    1.2349    0.3477 O.3     1  UNL11       0.0000
      5 C           2.9635    1.3542    0.3829 C.3     1  UNL11       0.0000
      6 H           3.2095    2.3800    0.6712 H       1  UNL11       0.0000
      7 H           3.3901    1.1611   -0.6064 H       1  UNL11       0.0000
      8 H           3.3877    0.6741    1.1282 H       1  UNL11       0.0000
@<TRIPOS>BOND
     1     1     2    1
     2     2     3    2
     3     2     4    1
     4     4     5    1
     5     5     6    1
     6     5     7    1
     7     5     8    1
