@<TRIPOS>MOLECULE
Et
 8 7 0 0 0
SMALL
GASTEIGER

@<TRIPOS>ATOM
      1 H           0.0000    0.0000    0.0000 H       1  UNL11       0.0000
      2 C           1.0941    0.0000   -0.0000 C       1  UNL11       0.0000
      3 C           1.6252   -1.4064    0.1619 C       1  UNL11       0.0000
      4 H           1.4387    0.6376    0.8196 H       1  UNL11       0.0000
      5 H           1.4387    0.4347   -0.9430 H       1  UNL11       0.0000
      6 H           1.2806   -1.8411    1.1048 H       1  UNL11       0.0000
      7 H           2.7193   -1.4064    0.1619 H       1  UNL11       0.0000
      8 H           1.2806   -2.0440   -0.6578 H       1  UNL11       0.0000
@<TRIPOS>BOND
     1     1     2    1
     2     2     3    1
     3     2     4    1
     4     2     5    1
     5     3     6    1
     6     3     7    1
     7     3     8    1
