@<TRIPOS>MOLECULE
*****
 11 10 0 0 0
SMALL
GASTEIGER

@<TRIPOS>ATOM
      1 H           1.0324   -0.0821   -0.0376 H       1  UNL1        0.0260
      2 C           2.1277   -0.0674   -0.0505 C.3     1  UNL1       -0.0588
      3 C           2.6224   -0.3625   -1.4567 C.3     1  UNL1       -0.0655
      4 C           2.6225    1.2852    0.4344 C.3     1  UNL1       -0.0655
      5 H           2.4735   -0.8509    0.6321 H       1  UNL1        0.0260
      6 H           2.2670    0.3944   -2.1633 H       1  UNL1        0.0230
      7 H           2.2576   -1.3387   -1.7919 H       1  UNL1        0.0230
      8 H           3.7161   -0.3772   -1.4907 H       1  UNL1        0.0230
      9 H           2.2671    2.0887   -0.2187 H       1  UNL1        0.0230
     10 H           3.7162    1.3167    0.4536 H       1  UNL1        0.0230
     11 H           2.2577    1.4836    1.4473 H       1  UNL1        0.0230
@<TRIPOS>BOND
     1     1     2    1
     2     2     3    1
     3     2     4    1
     4     2     5    1
     5     3     6    1
     6     3     7    1
     7     3     8    1
     8     4     9    1
     9     4    10    1
    10     4    11    1
