@<TRIPOS>MOLECULE
Me
 5 4 0 0 0
SMALL
GASTEIGER

@<TRIPOS>ATOM
      1 H           0.0000    0.0000    0.0000 H       1  UNL11       0.0000
      2 C           1.0922    0.0000    0.0000 C       1  UNL11       0.0000
      3 H           1.4563    0.4271   -0.9369 H       1  UNL11       0.0000
      4 H           1.4563   -1.0250    0.0986 H       1  UNL11       0.0000
      5 H           1.4563    0.5979    0.8384 H       1  UNL11       0.0000
@<TRIPOS>BOND
     1     1     2    1
     2     2     3    1
     3     2     4    1
     4     2     5    1
