@<TRIPOS>MOLECULE
*****
 10 9 0 0 0
SMALL
GASTEIGER

@<TRIPOS>ATOM
      1 H           1.0766   -0.0119    0.0769 H       1  UNL1        0.1182
      2 N           2.0946   -0.0348    0.0417 N.3     1  UNL1       -0.3302
      3 C           2.5867   -1.0796    0.9300 C.3     1  UNL1       -0.0097
      4 C           4.1055   -1.0902    0.9409 C.3     1  UNL1       -0.0528
      5 H           2.4129    0.8753    0.3725 H       1  UNL1        0.1182
      6 H           2.2126   -2.0505    0.5903 H       1  UNL1        0.0419
      7 H           2.2081   -0.9104    1.9437 H       1  UNL1        0.0419
      8 H           4.5063   -1.2764   -0.0611 H       1  UNL1        0.0242
      9 H           4.4730   -1.8803    1.6034 H       1  UNL1        0.0242
     10 H           4.5068   -0.1360    1.2991 H       1  UNL1        0.0242
@<TRIPOS>BOND
     1     1     2    1
     2     2     3    1
     3     3     4    1
     4     2     5    1
     5     3     6    1
     6     3     7    1
     7     4     8    1
     8     4     9    1
     9     4    10    1
