@<TRIPOS>MOLECULE
*****
 16 15 0 0 0
SMALL
GASTEIGER

@<TRIPOS>ATOM
      1 H           1.1497   -0.0089    0.0516 H       1  UNL1        0.1219
      2 N           2.1671    0.0519   -0.0102 N.3     1  UNL1       -0.3165
      3 C           2.5742    0.0714   -1.4144 C.3     1  UNL1       -0.0070
      4 C           2.0493   -1.1636   -2.1292 C.3     1  UNL1       -0.0526
      5 C           2.6291    1.2524    0.6845 C.3     1  UNL1       -0.0070
      6 C           2.2050    1.2104    2.1451 C.3     1  UNL1       -0.0526
      7 H           3.6677    0.0863   -1.4887 H       1  UNL1        0.0421
      8 H           2.1861    0.9651   -1.9158 H       1  UNL1        0.0421
      9 H           2.4239   -2.0819   -1.6647 H       1  UNL1        0.0242
     10 H           2.3740   -1.1596   -3.1751 H       1  UNL1        0.0242
     11 H           0.9543   -1.1944   -2.1180 H       1  UNL1        0.0242
     12 H           2.2091    2.1502    0.2161 H       1  UNL1        0.0421
     13 H           3.7221    1.3223    0.6362 H       1  UNL1        0.0421
     14 H           1.1185    1.1123    2.2433 H       1  UNL1        0.0242
     15 H           2.5048    2.1352    2.6490 H       1  UNL1        0.0242
     16 H           2.6755    0.3727    2.6694 H       1  UNL1        0.0242
@<TRIPOS>BOND
     1     1     2    1
     2     2     3    1
     3     3     4    1
     4     2     5    1
     5     5     6    1
     6     3     7    1
     7     3     8    1
     8     4     9    1
     9     4    10    1
    10     4    11    1
    11     5    12    1
    12     5    13    1
    13     6    14    1
    14     6    15    1
    15     6    16    1
