@<TRIPOS>MOLECULE
NH2
 4 3 0 0 0
SMALL
GASTEIGER

@<TRIPOS>ATOM
      1 H           0.0000    0.0000    0.0000 H       1  UNL11       0.0000
      2 N           1.0191    0.0000    0.0000 N.2     1  UNL11       0.0000
      3 H           1.2999    0.2672   -0.9424 H       1  UNL11       0.0000
      4 H           1.2999   -0.9732    0.1115 H       1  UNL11       0.0000
@<TRIPOS>BOND
     1     1     2    1
     2     2     3    1
     3     2     4    1
