@<TRIPOS>MOLECULE
NMe
 7 6 0 0 0
SMALL
GASTEIGER

@<TRIPOS>ATOM
      1 H           0.0000    0.0000    0.0000 H       1  UNL11       0.0000
      2 N           1.0191    0.0000    0.0000 N.2     1  UNL11       0.0000
      3 C           1.5017    0.8739   -1.0543 C       1  UNL11       0.0000
      4 H           1.3026   -0.9586   -0.1983 H       1  UNL11       0.0000
      5 H           1.1771    1.9019   -0.8709 H       1  UNL11       0.0000
      6 H           1.1174    0.5529   -2.0266 H       1  UNL11       0.0000
      7 H           2.5947    0.8587   -1.0868 H       1  UNL11       0.0000
@<TRIPOS>BOND
     1     1     2    1
     2     2     3    1
     3     2     4    1
     4     3     5    1
     5     3     6    1
     6     3     7    1
