@<TRIPOS>MOLECULE
OMe
 6 5 0 0 0
SMALL
GASTEIGER

@<TRIPOS>ATOM
      1 H           0.0000    0.0000    0.0000 H       1  UNL11       0.0000
      2 O           0.9724    0.0000    0.0000 O.3     1  UNL11       0.0000
      3 C           1.3887   -1.3280   -0.2593 C       1  UNL11       0.0000
      4 H           2.4806   -1.3630   -0.2662 H       1  UNL11       0.0000
      5 H           1.0101   -1.6460   -1.2338 H       1  UNL11       0.0000
      6 H           1.0101   -1.9892    0.5241 H       1  UNL11       0.0000
@<TRIPOS>BOND
     1     1     2    1
     2     2     3    1
     3     3     4    1
     4     3     5    1
     5     3     6    1
