@<TRIPOS>MOLECULE
Ph
 12 12 0 0 0
SMALL
GASTEIGER

@<TRIPOS>ATOM
      1 H           0.0000    0.0000    0.0000 H       1  UNL11       0.0000
      2 C           1.0868   -0.0000   -0.0000 C       1  UNL11       0.0000
      3 C           1.7838    1.2082   -0.0087 C       1  UNL11       0.0000
      4 C           3.1787    1.2082   -0.0105 C       1  UNL11       0.0000
      5 C           3.8760    0.0004    0.0016 C       1  UNL11       0.0000
      6 C           3.1791   -1.2078    0.0132 C       1  UNL11       0.0000
      7 C           1.7840   -1.2081    0.0094 C       1  UNL11       0.0000
      8 H           1.2405    2.1490   -0.0141 H       1  UNL11       0.0000
      9 H           3.7218    2.1493   -0.0211 H       1  UNL11       0.0000
     10 H           4.9627    0.0006    0.0022 H       1  UNL11       0.0000
     11 H           3.7225   -2.1487    0.0245 H       1  UNL11       0.0000
     12 H           1.2408   -2.1489    0.0143 H       1  UNL11       0.0000
@<TRIPOS>BOND
     1     1     2    1
     2     2     3   ar
     3     2     7   ar
     4     3     4   ar
     5     3     8    1
     6     4     5   ar
     7     4     9    1
     8     5     6   ar
     9     5    10    1
    10     6     7   ar
    11     6    11    1
    12     7    12    1
