@<TRIPOS>MOLECULE
tBu
 14 13 0 0 0
SMALL
GASTEIGER

@<TRIPOS>ATOM
      1 H           0.0000    0.0000    0.0000 H       1  UNL11       0.0000
      2 C           1.0967    0.0000    0.0000 C       1  UNL11       0.0000
      3 C           1.5796    1.0235    1.0252 C       1  UNL11       0.0000
      4 C           1.5797   -1.3997    0.3741 C       1  UNL11       0.0000
      5 C           1.5800    0.3761   -1.3989 C       1  UNL11       0.0000
      6 H           1.2142    0.7730    2.0266 H       1  UNL11       0.0000
      7 H           1.2146    2.0256    0.7763 H       1  UNL11       0.0000
      8 H           2.6737    1.0614    1.0634 H       1  UNL11       0.0000
      9 H           1.2143   -1.6851    1.3660 H       1  UNL11       0.0000
     10 H           2.6737   -1.4515    0.3880 H       1  UNL11       0.0000
     11 H           1.2147   -2.1419   -0.3438 H       1  UNL11       0.0000
     12 H           1.2149    1.3689   -1.6825 H       1  UNL11       0.0000
     13 H           1.2151   -0.3403   -2.1423 H       1  UNL11       0.0000
     14 H           2.6740    0.3902   -1.4505 H       1  UNL11       0.0000
@<TRIPOS>BOND
     1     1     2    1
     2     2     3    1
     3     2     4    1
     4     2     5    1
     5     3     6    1
     6     3     7    1
     7     3     8    1
     8     4     9    1
     9     4    10    1
    10     4    11    1
    11     5    12    1
    12     5    13    1
    13     5    14    1
