@<TRIPOS>MOLECULE
acetyl
 7 6 0 0 0
SMALL
GASTEIGER

@<TRIPOS>ATOM
      1 H           0.0000    0.0000    0.0000 H       1  UNL11       0.0000
      2 C           1.1029   -0.0000    0.0000 C.2     1  UNL11       0.0000
      3 O           1.7342    0.8034   -0.6789 O.2     1  UNL11       0.0000
      4 C           1.7571   -1.0286    0.8693 C.3     1  UNL11       0.0000
      5 H           0.9853   -1.6198    1.3689 H       1  UNL11       0.0000
      6 H           2.3689   -0.5317    1.6256 H       1  UNL11       0.0000
      7 H           2.3690   -1.6914    0.2533 H       1  UNL11       0.0000
@<TRIPOS>BOND
     1     1     2    1
     2     2     3    2
     3     2     4    1
     4     4     5    1
     5     4     6    1
     6     4     7    1
