@<TRIPOS>MOLECULE
CCl3
 5 4 0 0 0
SMALL
GASTEIGER

@<TRIPOS>ATOM
      1 H           0.0000    0.0000    0.0000 H       1  UNL11       0.0000
      2 C           1.0930    0.0000    0.0000 C       1  UNL11       0.0000
      3 Cl          1.6509    1.6103   -0.4846 Cl      1  UNL11       0.0000
      4 Cl          1.6508   -0.3853    1.6370 Cl      1  UNL11       0.0000
      5 Cl          1.6510   -1.2249   -1.1520 Cl      1  UNL11       0.0000
@<TRIPOS>BOND
     1     1     2    1
     2     2     3    1
     3     2     4    1
     4     2     5    1
