@<TRIPOS>MOLECULE
CF3
 5 4 0 0 0
SMALL
GASTEIGER

@<TRIPOS>ATOM
      1 H           0.0000    0.0000    0.0000 H       1  UNL11       0.0000
      2 C           1.0930    0.0000    0.0000 C       1  UNL11       0.0000
      3 F           1.5762   -1.0569   -0.6869 F       1  UNL11       0.0000
      4 F           1.5762    1.1233   -0.5718 F       1  UNL11       0.0000
      5 F           1.5762   -0.0665    1.2587 F       1  UNL11       0.0000
@<TRIPOS>BOND
     1     1     2    1
     2     2     3    1
     3     2     4    1
     4     2     5    1
