@<TRIPOS>MOLECULE
COOH
 5 4 0 0 0
SMALL
GASTEIGER

@<TRIPOS>ATOM
      1 H           0.0000    0.0000    0.0000 H       1  UNL11       0.0000
      2 C           1.1010   -0.0000    0.0000 C.2     1  UNL11       0.0000
      3 O           1.7916   -0.7188    0.6986 O.2     1  UNL11       0.0000
      4 O           1.5864    0.9006   -0.8753 O.3     1  UNL11       0.0000
      5 H           0.8740    1.3792   -1.3403 H       1  UNL11       0.0000
@<TRIPOS>BOND
     1     1     2    1
     2     2     3    2
     3     2     4    1
     4     4     5    1
