@<TRIPOS>MOLECULE
NMe2
 10 9 0 0 0
SMALL
GASTEIGER

@<TRIPOS>ATOM
      1 H           0.0000    0.0000    0.0000 H       1  UNL11       0.0000
      2 N           1.0194    0.0000    0.0000 N.2     1  UNL11       0.0000
      3 C           1.4990   -1.2606   -0.5505 C       1  UNL11       0.0000
      4 C           1.4990    1.1267   -0.7890 C       1  UNL11       0.0000
      5 H           1.1292   -2.0896    0.0607 H       1  UNL11       0.0000
      6 H           2.5928   -1.3061   -0.5404 H       1  UNL11       0.0000
      7 H           1.1433   -1.4123   -1.5749 H       1  UNL11       0.0000
      8 H           1.1293    2.0605   -0.3539 H       1  UNL11       0.0000
      9 H           1.1433    1.0730   -1.8231 H       1  UNL11       0.0000
     10 H           2.5928    1.1734   -0.7881 H       1  UNL11       0.0000
@<TRIPOS>BOND
     1     1     2    1
     2     2     3    1
     3     2     4    1
     4     3     5    1
     5     3     6    1
     6     3     7    1
     7     4     8    1
     8     4     9    1
     9     4    10    1
