@<TRIPOS>MOLECULE
NMeiPr
 16 15 0 0 0
SMALL
GASTEIGER

@<TRIPOS>ATOM
      1 H           0.0000    0.0000    0.0000 H       1  UNL11       0.0000
      2 N           1.0208    0.0000    0.0000 N.2     1  UNL11       0.0000
      3 C           1.4963    0.8671   -1.0866 C       1  UNL11       0.0000
      4 C           3.0220    0.8931   -1.2013 C       1  UNL11       0.0000
      5 C           0.8964    0.3548   -2.3985 C       1  UNL11       0.0000
      6 C           1.4866    0.4167    1.3168 C       1  UNL11       0.0000
      7 H           1.1329    1.8900   -0.9245 H       1  UNL11       0.0000
      8 H           3.4339   -0.1156   -1.3025 H       1  UNL11       0.0000
      9 H           3.4838    1.3665   -0.3273 H       1  UNL11       0.0000
     10 H           3.3341    1.4734   -2.0781 H       1  UNL11       0.0000
     11 H           1.2151   -0.6716   -2.6135 H       1  UNL11       0.0000
     12 H           1.2056    0.9839   -3.2397 H       1  UNL11       0.0000
     13 H          -0.1995    0.3684   -2.3661 H       1  UNL11       0.0000
     14 H           1.0083   -0.2040    2.0820 H       1  UNL11       0.0000
     15 H           1.2335    1.4609    1.5260 H       1  UNL11       0.0000
     16 H           2.5657    0.2742    1.4267 H       1  UNL11       0.0000
@<TRIPOS>BOND
     1     1     2    1
     2     2     3    1
     3     2     6    1
     4     3     4    1
     5     3     5    1
     6     3     7    1
     7     4     8    1
     8     4     9    1
     9     4    10    1
    10     5    11    1
    11     5    12    1
    12     5    13    1
    13     6    14    1
    14     6    15    1
    15     6    16    1
