@<TRIPOS>MOLECULE
ts
 16 14 0 0 0
SMALL
GASTEIGER

@<TRIPOS>ATOM
      1 C          -1.4522    0.4610    0.5398 C       1  UNL11       0.0000
      2 C           1.4149    0.5586    0.5400 C       1  UNL11       0.0000
      3 C           0.6522    1.4873   -0.1407 C       1  UNL11       0.0000
      4 C          -0.7542    1.4387   -0.1413 C       1  UNL11       0.0000
      5 C          -0.6412   -1.4392   -0.4122 C       1  UNL11       0.0000
      6 C           0.7416   -1.3886   -0.4141 C       1  UNL11       0.0000
      7 H           1.1408    2.1323   -0.8688 H       1  UNL11       0.0000
      8 H          -1.2854    2.0484   -0.8700 H       1  UNL11       0.0000
      9 H          -2.5298    0.3788    0.4250 H       1  UNL11       0.0000
     10 H           2.4958    0.5517    0.4273 H       1  UNL11       0.0000
     11 H          -1.0627    0.0422    1.4602 H       1  UNL11       0.0000
     12 H           1.0540    0.1142    1.4602 H       1  UNL11       0.0000
     13 H          -1.1940   -1.2387   -1.3225 H       1  UNL11       0.0000
     14 H           1.2753   -1.1484   -1.3262 H       1  UNL11       0.0000
     15 H          -1.1628   -2.0431    0.3241 H       1  UNL11       0.0000
     16 H           1.3077   -1.9552    0.3191 H       1  UNL11       0.0000
@<TRIPOS>BOND
     1     1     4    2
     2     1     9    1
     3     1    11    1
     4     2     3    2
     5     2    10    1
     6     2    12    1
     7     3     4   ar
     8     3     7    1
     9     4     8    1
    10     5     6    2
    11     5    13    1
    12     5    15    1
    13     6    14    1
    14     6    16    1
